%Mem=3800MB
%NProcShared=6
%chk=/home/itamar/Aromaticity-test-set/T10-old-T11-heteroaromatic/NH/nh.chk
#P MP2/6-311++G**  DENSITY=MP2
 
CH-
 
0 1
6 0.000000 1.124886 0.331177
6 0.000000 0.712382 -0.982359
6 0.000000 -0.712382 -0.982359
6 0.000000 -1.124886 0.331177
7 0.000000 0.000000 1.121570
1 0.000000 0.000000 2.127602
1 0.000000 2.112170 0.763257
1 0.000000 1.359416 -1.845462
1 0.000000 -1.359416 -1.845462
1 0.000000 -2.112170 0.763257





