%Mem=3800MB
%NProcShared=6
%chk=/home/itamar/Aromaticity-test-set/T4-Chair-Like/20/chair-20.chk
#P MP2/6-311++G** DENSITY=MP2
 
Chair-20
 
0 1
6 0.000000 1.374770 -0.079676
6 1.211781 0.695565 0.081291
6 1.211781 -0.695565 -0.081291
6 0.000000 -1.374770 0.079676
6 -1.211781 -0.695565 -0.081291
6 -1.211781 0.695565 0.081291
1 0.000000 2.460893 -0.066359
1 2.145881 1.247393 0.064953
1 2.145881 -1.247393 -0.064953
1 0.000000 -2.460893 0.066359
1 -2.145881 -1.247394 -0.064953
1 -2.145881 1.247394 0.064953





