%Mem=3800MB
%NProcShared=6
%chk=/home/itamar/Aromaticity-test-set/T1-BLA/005/bla-005.chk
#P MP2/6-311++G** DENSITY=MP2
 
Bla-0.05
 
0 1
6  0.684832 1.215031 0.000000
6 1.394663 -0.014434 0.000000
6 0.709832 -1.200597 0.000000
6 -0.709832 -1.200597 0.000000
6 -1.394663 -0.014434 0.000000
6 -0.684832 1.215031 0.000000
1 1.227044 2.154171 0.000000
1 2.479089 -0.014434 0.000000
1 1.252044 -2.139737 0.000000
1 -1.252044 -2.139737 0.000000
1 -2.479089 -0.014434 0.000000
1 -1.227044 2.154171 0.000000



