%Mem=3800MB
%NProcShared=6
%chk=/home/itamar/Aromaticity-test-set/T6-Subst-Complex-in-Benzene/CONH2/conh2.chk
#P MP2/6-311++G**  DENSITY=MP2
 
X=CONH2
 
0 1
6 1.851353 1.226452 -0.139939
6 0.458778 1.191721 -0.157092
6 -0.219649 -0.024785 -0.016842
6 0.516469 -1.205618 0.127165
6 1.906512 -1.168583 0.154592
6 2.576961 0.047675 0.022338
6 -1.718716 -0.136805 -0.037537
1 -0.021349 -2.141548 0.213656
1 2.468339 -2.087769 0.275026
1 3.660611 0.075871 0.038132
1 2.368628 2.171268 -0.261619
1 -0.090656 2.112739 -0.315911
8 -2.285185 -1.181193 -0.314109
7 -2.418507 1.008154 0.252455
1 -3.419148 0.909874 0.335093
1 -1.985654 1.771688 0.745201



