%Mem=3800MB
%NProcShared=6
%chk=/home/itamar/Aromaticity-test-set/T3-Boat-Like/20/boat-20.chk
#P MP2/6-311++G** DENSITY=MP2
 
Boat-20
 
0 1
6 -0.003900 1.392615 0.082010
6 1.207876 0.692948 0.082010
6 1.182198 -0.682559 -0.160191
6 0.003900 -1.392615 0.082010
6 -1.207876 -0.692948 0.082010
6 -1.182198 0.682559 -0.160191
1 -0.015236 2.475194 0.136427
1 2.151137 1.224307 0.136753
1 2.116727 -1.222072 -0.277010
1 0.015236 -2.475194 0.136427
1 -2.151137 -1.224307 0.136753
1 -2.116727 1.222072 -0.277010



