%Mem=3800MB
%NProcShared=6
%chk=/home/itamar/Aromaticity-test-set/T14-old-T15-Acetylene-Trimerization/IRC2/at-ts.chk
#P MP2/6-311++G** IRC=(CalcFC,MaxCycle=50)
 
Acetylene trimerization
 
0 1
6 -1.151754 1.366558 0.000000
6 0.000000 1.787096 0.000000
6 1.759490 0.314231 0.000000
6 -1.547911 -0.893513 0.000000
6 1.548345 -0.893519 0.000000
6 -0.608105 -1.680949 0.000000
1 0.729765 2.561162 0.000000
1 -2.208608 1.488055 0.000000
1 -2.583048 -0.648206 0.000000
1 2.392812 1.168973 0.000000
1 -0.184259 -2.656652 0.000000
1 1.852950 -1.912756 0.000000


