%chk=chair-10.chk
#P MP2/6-311++G** nosymm Density=MP2 

Chair-10

0 1
 C                    1.38974015   -0.00000000   0.04051851
 C                    0.69687803    1.20874709  -0.04051851
 C                   -0.69687803    1.20874709   0.04051851
 C                   -1.38974015    0.00000000  -0.04051851
 C                   -0.69687803   -1.20874709   0.04051851
 C                    0.69687803   -1.20874709  -0.04051851
 H                    2.47458320    0.00000000   0.03263560
 H                    1.24144803    2.14667217  -0.03195569
 H                   -1.24144803    2.14667217   0.03195569
 H                   -2.47458320    0.00000000  -0.03263560
 H                   -1.24144803   -2.14667217   0.03195569
 H                    1.24144803   -2.14667217  -0.03195569

