%Mem=3800MB
%NProcShared=6
%chk=/home/itamar/Aromaticity-test-set/T6-Subst-Complex-in-Benzene/COCl/cocl.chk
#P MP2/6-311++G** DENSITY=MP2
 
X=COCl
 
0 1
6 2.594516 1.266902 0.000000
6 1.503343 2.137280 0.000000
6 0.210882 1.630118 0.000000
6 0.000000 0.241608 0.000000
6 1.097026 -0.627421 0.000000
6 2.389263 -0.111751 0.000000
1 0.938262 -1.696660 0.000000
1 3.236054 -0.787720 0.000000
1 3.603378 1.663658 0.000000
1 1.661540 3.209273 0.000000
1 -0.645890 2.291773 0.000000
6 -1.412284 -0.212076 0.000000
17 -1.652515 -2.028579 0.000000
8 -2.374633 0.482195 0.000000



