%Mem=3800MB
%NProcShared=6
%chk=/home/itamar/Aromaticity-test-set/T6-Subst-Complex-in-Benzene/CCH/cch.chk
#P MP2/6-311++G** DENSITY=MP2
 
X=CCH
 
0 1
6 0.000609 -2.209655 0.000000
6 -1.206111 -1.510255 0.000000
6 -1.210765 -0.119555 0.000000
6 0.000000 0.593807 0.000000
6 1.211014 -0.118967 0.000000
6 1.206971 -1.509699 0.000000
6 -0.000485 2.021987 0.000000
1 2.146431 0.427389 0.000000
1 2.147733 -2.048484 0.000000
1 0.000861 -3.293691 0.000000
1 -2.146617 -2.049491 0.000000
1 -2.146381 0.426446 0.000000
6 -0.001594 3.227049 0.000000
1 0.000141 4.289554 0.000000



