%chk=chair-25.chk
#P MP2/6-311++G** nosymm Density=MP2 

Chair-25

0 1
 C                  1.36327735    0.00000000        0.10064173
 C                  0.69475810    1.21416409       -0.10064173
 C                 -0.69475810    1.21416409        0.10064173
 C                 -1.36327735    0.00000000       -0.10064173
 C                 -0.69475810   -1.21416409        0.10064173
 C                  0.69475810   -1.21416409       -0.10064173
 H                  2.45039262    0.00000000        0.08792996
 H                  1.25211267    2.14527816       -0.07981948
 H                 -1.25211267    2.14527816        0.07981948
 H                 -2.45039262   -0.00000000       -0.08792996
 H                 -1.25211267   -2.14527816        0.07981948
 H                  1.25211267   -2.14527816       -0.07981948

