%Mem=3800MB
%NProcShared=6
%chk=/home/itamar/Aromaticity-test-set/T2-Clamping/10/clamp-10.chk
#P MP2/6-311++G** DENSITY=MP2
 
Clamp-10
 
0 1
6 0.009629 1.397529 0.000000
6 1.205449 0.707079 0.000000
6 1.205449 -0.707079 0.000000
6 0.009629 -1.397529 0.000000
6 -1.215052 -0.690415 0.000000
6 -1.215052 0.690415 0.000000
1 -0.178700 2.465434 0.000000
1 2.224423 1.077957 0.000000
1 2.224423 -1.077957 0.000000
1 -0.178700 -2.465434 0.000000
1 -2.045748 -1.387412 0.000000
1 -2.045748 1.387412 0.000000



