%chk=clamp-10.chk
#P MP2/6-311++G** nosymm Density=MP2 

Clamp-10

0 1
 C                    1.39752911    0.00962276   -0.00000000
 C                    0.70707905    1.20544285    0.00000000
 C                   -0.70707905    1.20544285   -0.00000000
 C                   -1.39752911    0.00962276   -0.00000000
 C                   -0.69041505   -1.21505833    0.00000000
 C                    0.69041505   -1.21505833    0.00000000
 H                    2.46543419   -0.17870625    0.00000000
 H                    1.07795708    2.22441693    0.00000000
 H                   -1.07795708    2.22441693   -0.00000000
 H                   -2.46543419   -0.17870625   -0.00000000
 H                   -1.38741210   -2.04575440    0.00000000
 H                    1.38741210   -2.04575440    0.00000000

