%Mem=3800MB
%NProcShared=6
%chk=/home/itamar/Aromaticity-test-set/T6-Subst-Complex-in-Benzene/OH/oh.chk
#P MP2/6-311++G** DENSITY=MP2
 
X=OH
 
0 1
6 -1.203937 0.231932 0.000000
6 -1.187890 -1.162126 0.000000
6 0.020269 -1.855253 0.000000
6 1.218336 -1.138884 0.000000
6 1.215468 0.252074 0.000000
6 0.000000 0.938451 0.000000
1 0.029635 -2.938553 0.000000
1 2.165288 -1.667106 0.000000
1 2.138563 0.819051 0.000000
1 -2.148683 0.768176 0.000000
1 -2.127082 -1.703895 0.000000
8 0.051348 2.307369 0.000000
1 -0.841975 2.666215 0.000000



