%Mem=3800MB
%NProcShared=6
%chk=/home/itamar/Aromaticity-test-set/T6-Subst-Complex-in-Benzene/NN+/nn+.chk
#P MP2/6-311++G** DENSITY=MP2
 
X=NN+
 
1 1
6 1.221019 -1.480463 0.000000
6 1.243137 -0.096667 0.000000
6 0.000000 0.562626 0.000000
6 -1.243049 -0.096888 0.000000
6 -1.220685 -1.480660 0.000000
6 0.000235 -2.165545 0.000000
7 -0.000172 1.941555 0.000000
1 -2.170562 0.461738 0.000000
1 -2.154272 -2.028914 0.000000
1 0.000301 -3.249204 0.000000
1 2.154721 -2.028519 0.000000
1 2.170572 0.462089 0.000000
7 -0.000500 3.048215 0.000000



