%Mem=3800MB
%NProcShared=6
%chk=/home/itamar/Aromaticity-test-set/T3-Boat-Like/15/boat-15.chk
#P MP2/6-311++G** DENSITY=MP2
 
Boat-15
 
0 1
6 -0.002172 1.393469 0.061254
6 1.207772 0.694861 0.061254
6 1.193472 -0.689068 -0.120820
6 0.002172 -1.393469 0.061254
6 -1.207772 -0.694861 0.061254
6 -1.193472 0.689068 -0.120820
1 -0.008593 2.476826 0.103094
1 2.149236 1.230900 0.103398
1 2.130030 -1.229759 -0.208181
1 0.008593 -2.476826 0.103094
1 -2.149236 -1.230900 0.103398
1 -2.130030 1.229759 -0.208181




