%chk=pyramid-25.chk
#P MP2/6-311++G** nosymm Density=MP2 

Pyramid-25

0 1
 C                   -0.69951255    1.21153609   0.06555862 
 C                    0.69951255    1.21153609   0.06555862 
 C                    1.39908061   -0.00000000   0.06559012 
 C                    0.69951255   -1.21153609   0.06555862 
 C                   -0.69951255   -1.21153609   0.06555862 
 C                   -1.39908061    0.00000000   0.06559212 
 H                   -1.19155792    2.06403116  -0.39343006 
 H                    1.19155726    2.06403116  -0.39343076 
 H                    2.38336935   -0.00000000  -0.39339161 
 H                    1.19155726   -2.06403116  -0.39343076 
 H                   -1.19155792   -2.06403116  -0.39343006 
 H                   -2.38336801    0.00000000  -0.39338721 

