%Mem=3800MB
%NProcShared=6
%chk=/home/itamar/Aromaticity-test-set/T5-Pyramid/25/pyramid-25.chk
#P MP2/6-311++G** DENSITY=MP2
 
Pyramid-25
 
0 1
6 -0.065558 -0.699513 -1.211536
6 -0.065559 0.699512 -1.211536
6 -0.065591 1.399080 0.000000
6 -0.065559 0.699512 1.211536
6 -0.065558 -0.699513 1.211536
6 -0.065591 -1.399081 0.000000
1 0.393431 -1.191558 -2.064031
1 0.393430 1.191557 -2.064031
1 0.393390 2.383369 0.000000
1 0.393430 1.191557 2.064031
1 0.393431 -1.191558 2.064031
1 0.393389 -2.383368 0.000000

