%chk=clamp-20.chk
#P MP2/6-311++G** nosymm Density=MP2 

Clamp-20

0 1
 C                   1.40820011    0.02381272     0.00000000
 C                   0.72468105    1.20755481     0.00000000
 C                  -0.72468105    1.20755481    -0.00000000
 C                  -1.40820011    0.02381272    -0.00000000
 C                  -0.68344605   -1.23135638     0.00000000
 C                   0.68344605   -1.23135638     0.00000000
 H                   2.42637918   -0.34682831     0.00000000
 H                   0.91283707    2.27463389     0.00000000
 H                  -0.91283707    2.27463389    -0.00000000
 H                  -2.42637918   -0.34682831    -0.00000000
 H                  -1.51343612   -1.92787243    -0.00000000
 H                   1.51343612   -1.92787243     0.00000000

