%Mem=3800MB
%NProcShared=6
%chk=/home/itamar/Aromaticity-test-set/T2-Clamping/20/clamp-20.chk
#P MP2/6-311++G** DENSITY=MP2 
 
Clamp-20
 
0 1
6 0.023822 1.408200 0.000000
6 1.207564 0.724681 0.000000
6 1.207564 -0.724681 0.000000
6 0.023822 -1.408200 0.000000
6 -1.231347 -0.683446 0.000000
6 -1.231347 0.683446 0.000000
1 -0.346819 2.426379 0.000000
1 2.274643 0.912837 0.000000
1 2.274643 -0.912837 0.000000
1 -0.346819 -2.426379 0.000000
1 -1.927863 -1.513436 0.000000
1 -1.927863 1.513436 0.000000


