%chk=NH.chk
#P MP2/6-311++G** nosymm Density=MP2 

CH-

0 1
 C                   1.12488609    0.33117703     -0.00000000
 C                   0.71238205   -0.98235907      0.00000000
 C                  -0.71238205   -0.98235907      0.00000000
 C                  -1.12488609    0.33117703     -0.00000000
 N                  -0.00000000    1.12157009     -0.00000000
 H                  -0.00000000    2.12760216     -0.00000000
 H                   2.11217016    0.76325706     -0.00000000
 H                   1.35941610   -1.84546214      0.00000000
 H                  -1.35941610   -1.84546214      0.00000000
 H                  -2.11217016    0.76325706     -0.00000000

