%Mem=3800MB
%NProcShared=6
%chk=/home/itamar/Aromaticity-test-set/T10-old-T11-heteroaromatic/CH-/ch-.chk
#P MP2/6-311++G** Density=MP2
 
CH-
 
-1 1
6 0.372001 1.144849 0.000000
1 0.707445 2.177331 0.000000
6 -0.973909 0.707543 0.000000
1 -1.852134 1.345710 0.000000
6 0.372001 -1.144849 0.000000
1 0.707445 -2.177331 0.000000
6 -0.973909 -0.707543 0.000000
1 -1.852134 -1.345710 0.000000
6 1.203812 0.000000 0.000000
1 2.289401 0.000000 0.000000





