%Mem=3800MB
%NProcShared=6
%chk=/home/itamar/Aromaticity-test-set/T1-BLA/015/bla-015.chk
#P MP2/6-311++G** DENSITY=MP2
 
Bla-0.15
 
0 1
6 0.659832 1.229464 0.000000
6 1.394663 -0.043301 0.000000
6 0.734832 -1.186163 0.000000
6 -0.734832 -1.186163 0.000000
6 -1.394663 -0.043301 0.000000
6 -0.659832 1.229464 0.000000
1 1.202044 2.168604 0.000000
1 2.479089 -0.043301 0.000000
1 1.277044 -2.125303 0.000000
1 -1.277044 -2.125303 0.000000
1 -2.479089 -0.043301 0.000000
1 -1.202044 2.168604 0.000000




