%Mem=3800MB
%NProcShared=6
%chk=/home/itamar/Aromaticity-test-set/T12-old-T14-Fulvenes/Hepta-O/hepta-o.chk
#P MP2/6-311++G** DENSITY=MP2
 
Hepta-O
 
0 1
6  0.680562 -1.846819 0.000000
6 1.562598 -0.718338 0.000000
6 -0.680532 -1.846844 0.000000
6 -1.562607 -0.718398 0.000000
6 -1.284295 0.611249 0.000000
6 0.000000 1.327143 0.000000
6 1.284302 0.611299 0.000000
1 -2.125603 1.297971 0.000000
1 2.125631 1.297991 0.000000
1 2.618869 -0.974154 0.000000
1 1.168314 -2.816619 0.000000
1 -1.168248 -2.816668 0.000000
1 -2.618873 -0.974232 0.000000
8 -0.000031 2.558744 0.000000


