%Mem=3800MB
%NProcShared=6
%chk=/home/itamar/Aromaticity-test-set/T4-Chair-Like/5/chair-5.chk
#P MP2/6-311++G** DENSITY=MP2
 
Chair-5
 
0 1
6 0.000000 1.393466 -0.020234
6 1.208028 0.697213 0.020294
6 1.208028 -0.697213 -0.020294
6 0.000000 -1.393466 0.020234
6 -1.208028 -0.697213 -0.020294
6 -1.208028 0.697213 0.020294
1 0.000000 2.477991 -0.015990
1 2.146876 1.239998 0.015945
1 2.146876 -1.239998 -0.015945
1 0.000000 -2.477991 0.015990
1 -2.146876 -1.239998 -0.015945
1 -2.146876 1.239998 0.015945



