%chk=chair-5.chk
#P MP2/6-311++G** nosymm Density=MP2 

Chair-5

0 1
 C                    1.39346553   -0.00000000    0.02027399
 C                    0.69721364    1.20802809   -0.02027399
 C                   -0.69721364    1.20802809    0.02027399
 C                   -1.39346553   -0.00000000   -0.02027399
 C                   -0.69721364   -1.20802809    0.02027399
 C                    0.69721364   -1.20802809   -0.02027399
 H                    2.47799073   -0.00000000    0.01606112
 H                    1.23999855    2.14687616   -0.01590941
 H                   -1.23999855    2.14687616    0.01590941
 H                   -2.47799073    0.00000000   -0.01606112
 H                   -1.23999855   -2.14687616    0.01590941
 H                    1.23999855   -2.14687616   -0.01590941
    
