%Mem=3800MB
%NProcShared=6
%chk=/home/itamar/Aromaticity-test-set/T6-Subst-Complex-in-Benzene/NO/no.chk
#P MP2/6-311++G** DENSITY=MP2
 
X=NO
 
0 1
8 -1.333915 2.406766 0.000000
7 -0.181762 2.024943 0.000000
1 0.778755 -3.176570 0.000000
6 0.000000 0.596317 0.000000
6 -1.057331 -0.322437 0.000000
1 -2.075718 0.046461 0.000000
6 -0.768658 -1.678675 0.000000
1 -1.572955 -2.405395 0.000000
6 0.562749 -2.114048 0.000000
6 1.610808 -1.194595 0.000000
1 2.637846 -1.539869 0.000000
6 1.329223 0.168655 0.000000
1 2.114977 0.915343 0.000000





