%Mem=3800MB
%NProcShared=6
%chk=/home/itamar/Aromaticity-test-set/T11-old-T12-Clar-systems/Pyrene/pyr.chk
#P MP2/6-311++G** Density=MP2
 
Pyrene
 
0 1
6 0.000127 -3.518966 0.000000
6 -1.208869 -2.829282 0.000000
6 -1.234523 -1.427212 0.000000
6 -0.000003 -0.712453 0.000000
6 1.234397 -1.427026 0.000000
6 1.208893 -2.829318 0.000000
6 2.460928 -0.679538 0.000000
6 2.460928 0.679539 0.000000
6 1.234398 1.427027 0.000000
6 -0.000003 0.712453 0.000000
6 -1.234523 1.427211 0.000000
6 -2.460958 0.679507 0.000000
6 -2.460958 -0.679508 0.000000
6 -1.208869 2.829282 0.000000
6 0.000126 3.518966 0.000000
6 1.208893 2.829319 0.000000
1 -3.397792 -1.226925 0.000000
1 -3.397791 1.226924 0.000000
1 -0.000033 -4.603162 0.000000
1 -2.146110 -3.375683 0.000000
1 2.146302 -3.375426 0.000000
1 3.397679 -1.227069 0.000000
1 3.397679 1.227069 0.000000
1 -2.146110 3.375681 0.000000
1 -0.000032 4.603162 0.000000
1 2.146301 3.375428 0.000000








