%Mem=3800MB
%NProcShared=6
%chk=/home/itamar/Aromaticity-test-set/T10-old-T11-heteroaromatic/O/o.chk
#P MP2/6-311++G** DENSITY=MP2
 
O
 
0 1
6 0.000000 0.717679 -0.957756
6 0.000000 -0.717679 -0.957756
6 0.000000 -1.095144 0.346923
8 0.000000 0.000000 1.158526
6 0.000000 1.095144 0.346923
1 0.000000 1.373404 -1.813697
1 0.000000 -1.373404 -1.813697
1 0.000000 -2.049761 0.844593
1 0.000000 2.049761 0.844593





