%Mem=3800MB
%NProcShared=6
%chk=/home/itamar/Aromaticity-test-set/T5-Pyramid/20/pyramid-20.chk
#P MP2/6-311++G** DENSITY=MP2
 
Pyramid-20
 
0 1
6 1.210156 -0.698711 -0.053047
6 1.210156 0.698711 -0.053047
6 0.000000 1.397479 -0.053014
6 -1.210156 0.698711 -0.053047
6 -1.210156 -0.698711 -0.053047
6 0.000000 -1.397479 -0.053014
1 2.093563 -1.208626 0.318206
1 2.093563 1.208625 0.318207
1 0.000000 2.417483 0.318237
1 -2.093563 1.208626 0.318206
1 -2.093563 -1.208625 0.318207
1 0.000000 -2.417483 0.318237

