%Mem=3800MB
%NProcShared=6
%chk=/home/itamar/Aromaticity-test-set/T10-old-T11-heteroaromatic/BH/bh.chk
#P MP2/6-311++G** Density=MP2
 
BH
 
0 1
6 0.049984 1.252498 0.000000
1 0.275144 2.311270 0.000000
6 -1.198962 0.759131 0.000000
1 -2.121676 1.332029 0.000000
6 0.049983 -1.252498 0.000000
1 0.275143 -2.311270 0.000000
6 -1.198962 -0.759130 0.000000
1 -2.121677 -1.332027 0.000000
5 1.017294 0.000000 0.000000
1 2.206448 -0.000001 0.000000






