%Mem=3800MB
%NProcShared=6
%chk=/home/itamar/Aromaticity-test-set/T3-Boat-Like/25/boat-25.chk
#P MP2/6-311++G** DENSITY=MP2
 
Boat-25
 
0 1
6 -0.006177 1.391660 0.103066
6 1.208177 0.690498 0.103066
6 1.167565 -0.674110 -0.198662
6 0.006177 -1.391660 0.103066
6 -1.208177 -0.690498 0.103066
6 -1.167565 0.674110 -0.198662
1 -0.023722 2.473314 0.168593
1 2.153744 1.216004 0.168913
1 2.099501 -1.212119 -0.344977
1 0.023722 -2.473314 0.168593
1 -2.153744 -1.216004 0.168913
1 -2.099501 1.212119 -0.344977





