%Mem=3800MB
%NProcShared=6
%chk=/home/itamar/Aromaticity-test-set/T6-Subst-Complex-in-Benzene/COOH/cooh.chk
#P MP2/6-311++G** DENSITY=MP2
 
X=COOH
 
0 1
6 -0.964164 -1.993456 0.000000
6 -1.125353 -0.611100 0.000000
6 0.000000 0.221743 0.000000
6 1.282596 -0.338849 0.000000
6 1.438244 -1.720196 0.000000
6 0.315205 -2.548529 0.000000
6 -0.114929 1.703806 0.000000
1 2.140468 0.321996 0.000000
1 2.432251 -2.152078 0.000000
1 0.437278 -3.625873 0.000000
1 -1.835668 -2.637806 0.000000
1 -2.115081 -0.173997 0.000000
8 0.817434 2.473119 0.000000
8 -1.402420 2.137166 0.000000
1 -1.368949 3.104962 0.000000


