%Mem=3800MB
%NProcShared=6
%chk=/home/itamar/Aromaticity-test-set/T2-Clamping/15/clamp-15.chk
#P MP2/6-311++G** DENSITY=MP2
 
Clamp-15
 
0 1
6 0.015766 1.401541 0.000000
6 1.205859 0.714396 0.000000
6 1.205859 -0.714396 0.000000
6 0.015766 -1.401541 0.000000
6 -1.221614 -0.687113 0.000000
6 -1.221614 0.687113 0.000000
1 -0.264849 2.448747 0.000000
1 2.253075 0.994998 0.000000
1 2.253075 -0.994998 0.000000
1 -0.264849 -2.448747 0.000000
1 -1.988237 -1.453710 0.000000
1 -1.988237 1.453710 0.000000


