%chk=O.chk
#P MP2/6-311++G** nosymm Density=MP2 

O

0 1
 C                0.71767905   -0.95775607       0.00000000 
 C               -0.71767905   -0.95775607      -0.00000000 
 C               -1.09514409    0.34692303      -0.00000000 
 O                0.00000000    1.15852609       0.00000000 
 C                1.09514409    0.34692303       0.00000000 
 H                1.37340410   -1.81369714       0.00000000 
 H               -1.37340410   -1.81369714      -0.00000000 
 H               -2.04976116    0.84459306      -0.00000000 
 H                2.04976116    0.84459306       0.00000000 

