%Mem=3800MB
%NProcShared=6
%chk=/home/itamar/Aromaticity-test-set/T5-Pyramid/15/pyramid-15.chk
#P MP2/6-311++G** DENSITY=MP2
 
Pyramid-15
 
0 1
6 -1.209103 0.698100 -0.040128
6 -1.209103 -0.698100 -0.040128
6 0.000000 -1.396263 -0.040097
6 1.209103 -0.698100 -0.040128
6 1.209103 0.698100 -0.040128
6 0.000000 1.396263 -0.040097
1 -2.116788 1.222046 0.240696
1 -2.116788 -1.222047 0.240696
1 0.000000 -2.444307 0.240726
1 2.116788 -1.222046 0.240696
1 2.116788 1.222047 0.240696
1 0.000000 2.444307 0.240726



