12
Coordinates from ORCA-job goat E -15.878013426260
  C      -1.212626      0.700110      0.000000
  C       0.000000      1.400215      0.000000
  C       1.212626      0.700108      0.000000
  C       1.212626     -0.700110      0.000000
  C      -0.000000     -1.400215      0.000000
  C      -1.212626     -0.700108      0.000000
  H      -2.153778      1.243486      0.000000
  H       0.000000      2.486965      0.000000
  H       2.153777      1.243486      0.000000
  H       2.153778     -1.243486      0.000000
  H      -0.000000     -2.486965      0.000000
  H      -2.153777     -1.243486      0.000000
12
Coordinates from ORCA-job goat E -15.879627415650
  C      -1.200346      0.693020      0.000000
  C       0.000000      1.386037     -0.000000
  C       1.200346      0.693019      0.000000
  C       1.200346     -0.693020     -0.000000
  C      -0.000000     -1.386037      0.000000
  C      -1.200346     -0.693019     -0.000000
  H      -2.135586      1.232983     -0.000000
  H      -0.000000      2.465961      0.000000
  H       2.135586      1.232983     -0.000000
  H       2.135586     -1.232983      0.000000
  H       0.000000     -2.465961     -0.000000
  H      -2.135586     -1.232983      0.000000
12
Coordinates from ORCA-job goat E -15.879640587360
  C      -1.199075      0.692286     -0.000000
  C       0.000000      1.384571      0.000000
  C       1.199075      0.692286     -0.000000
  C       1.199075     -0.692286      0.000000
  C      -0.000000     -1.384571     -0.000000
  C      -1.199075     -0.692286      0.000000
  H      -2.134667      1.232451     -0.000000
  H       0.000000      2.464900     -0.000000
  H       2.134666      1.232452     -0.000000
  H       2.134667     -1.232451      0.000000
  H      -0.000000     -2.464900     -0.000000
  H      -2.134666     -1.232452      0.000000
12
Coordinates from ORCA-job goat E -15.879640657030
  C      -1.199086      0.692293      0.000000
  C       0.000000      1.384584      0.000000
  C       1.199086      0.692292     -0.000000
  C       1.199086     -0.692293     -0.000000
  C      -0.000000     -1.384584      0.000000
  C      -1.199086     -0.692292     -0.000000
  H      -2.134787      1.232521      0.000000
  H       0.000000      2.465039      0.000000
  H       2.134787      1.232521     -0.000000
  H       2.134787     -1.232521     -0.000000
  H      -0.000000     -2.465039      0.000000
  H      -2.134787     -1.232521     -0.000000
12
Coordinates from ORCA-job goat E -15.879640657440
  C      -1.199087      0.692293     -0.000000
  C       0.000000      1.384586     -0.000000
  C       1.199087      0.692293      0.000000
  C       1.199087     -0.692293      0.000000
  C      -0.000000     -1.384586     -0.000000
  C      -1.199087     -0.692293      0.000000
  H      -2.134797      1.232526     -0.000000
  H       0.000000      2.465051     -0.000000
  H       2.134797      1.232526      0.000000
  H       2.134797     -1.232526      0.000000
  H      -0.000000     -2.465051     -0.000000
  H      -2.134797     -1.232526      0.000000
