! GOAT XTB
%pal
   nprocs 4
end

* xyz 0 1
   C     -1.212626    0.700110    0.000000
   C      0.000000    1.400215    0.000000
   C      1.212626    0.700108    0.000000
   C      1.212626   -0.700110    0.000000
   C     -0.000000   -1.400215    0.000000
   C     -1.212626   -0.700108    0.000000
   H     -2.153778    1.243486    0.000000
   H      0.000000    2.486965    0.000000
   H      2.153777    1.243486    0.000000
   H      2.153778   -1.243486    0.000000
   H     -0.000000   -2.486965    0.000000
   H     -2.153777   -1.243486    0.000000
*


