12
Coordinates from ORCA-job goat E -15.879640657440
  C          -1.19908674025825      0.69229316493479     -0.00000000000088
  C           0.00000018595442      1.38458552778249     -0.00000000000263
  C           1.19908689667145      0.69229279867673      0.00000000000333
  C           1.19908674025828     -0.69229316493475      0.00000000000220
  C          -0.00000018595433     -1.38458552778251     -0.00000000000581
  C          -1.19908689667141     -0.69229279867676      0.00000000000619
  H          -2.13479700174302      1.23252623392905     -0.00000000000115
  H           0.00000011451781      2.46505100386923     -0.00000000000651
  H           2.13479697907625      1.23252619077340      0.00000000000521
  H           2.13479700174304     -1.23252623392913      0.00000000000116
  H          -0.00000011451800     -2.46505100386922     -0.00000000000876
  H          -2.13479697907622     -1.23252619077334      0.00000000000765
