%Mem=3800MB
%NProcShared=6
%chk=/home/itamar/Aromaticity-test-set/T6-Subst-Complex-in-Benzene/F/f.chk
#P MP2/6-311++G** DENSITY=MP2
 
X=H
 
0 1
6 -1.215806 0.259980 0.000000
6 -1.206760 -1.134311 0.000000
6 0.000000 -1.833153 0.000000
6 1.206760 -1.134311 0.000000
6 1.215806 0.259980 0.000000
6 0.000000 0.925809 0.000000
9 0.000000 2.282918 0.000000
1 0.000000 -2.916547 0.000000
1 -2.138829 0.826056 0.000000
1 2.138829 0.826056 0.000000
1 -2.147289 -1.672892 0.000000
1 2.147289 -1.672892 0.000000


