%Mem=3800MB
%NProcShared=6
%chk=/home/itamar/Aromaticity-test-set/T2-Clamping/25/clamp-25.chk
#P MP2/6-311++G** DENSITY=MP2
 
Clamp-25
 
0 1
6 0.035075 1.418750 0.000000
6 1.211092 0.739706 0.000000
6 1.211092 -0.739706 0.000000
6 0.035075 -1.418750 0.000000
6 -1.246136 -0.678985 0.000000
6 -1.246136 0.678985 0.000000
1 -0.422296 2.399504 0.000000
1 2.289139 0.834025 0.000000
1 2.289139 -0.834025 0.000000
1 -0.422296 -2.399504 0.000000
1 -1.866875 -1.565428 0.000000
1 -1.866875 1.565428 0.000000

