%nprocshared=4
%chk=E:\- 5 Doutorado\Projetos\0 - aromaticidade roberta\cálculos\Aromaticity-test-set - mine\C6H6\opt\c6h6opt.chk
# opt=verytight freq MP2/6-311++G**

14-H

0 1
 C                 -0.00000000    1.39466311    0.00000000
 C                 -1.20781368    0.69733155    0.00000000
 C                 -1.20781368   -0.69733155    0.00000000
 C                 -0.00000000   -1.39466311    0.00000000
 C                  1.20781368   -0.69733155   -0.00000000
 C                  1.20781368    0.69733155   -0.00000000
 H                 -0.00000000    2.47908919    0.00000000
 H                 -2.14695422    1.23954459    0.00000000
 H                 -2.14695422   -1.23954459    0.00000000
 H                 -0.00000000   -2.47908919    0.00000000
 H                  2.14695422   -1.23954459   -0.00000000
 H                  2.14695422    1.23954459   -0.00000000

