%chk=clamp-5.chk
#P MP2/6-311++G** nosymm Density=MP2 

Clamp-5

0 1
 C                  1.39537010    0.00457110    -0.00000000   
 C                  0.70162205    1.20610519     0.00000000   
 C                 -0.70162205    1.20610519    -0.00000000   
 C                 -1.39537010    0.00457110    -0.00000000   
 C                 -0.69371405   -1.21066900     0.00000000   
 C                  0.69371405   -1.21066900     0.00000000   
 H                  2.47566119   -0.08996491     0.00000000   
 H                  1.15991809    2.18892126     0.00000000   
 H                 -1.15991809    2.18892126    -0.00000000   
 H                 -2.47566119   -0.08996491    -0.00000000   
 H                 -1.31569810   -2.09900006     0.00000000   
 H                  1.31569810   -2.09900006     0.00000000   

