%Mem=3800MB
%NProcShared=6
%chk=/home/itamar/Aromaticity-test-set/T2-Clamping/5/clamp-5.chk
#P MP2/6-311++G** DENSITY=MP2
 
Clamp-5
 
0 1
6 0.004577 1.395370 0.000000
6 1.206111 0.701622 0.000000
6 1.206111 -0.701622 0.000000
6 0.004577 -1.395370 0.000000
6 -1.210663 -0.693714 0.000000
6 -1.210663 0.693714 0.000000
1 -0.089959 2.475661 0.000000
1 2.188927 1.159918 0.000000
1 2.188927 -1.159918 0.000000
1 -0.089959 -2.475661 0.000000
1 -2.098994 -1.315698 0.000000
1 -2.098994 1.315698 0.000000



