%Mem=3800MB
%NProcShared=6
%chk=/home/itamar/Aromaticity-test-set/T6-Subst-Complex-in-Benzene/CN/cn.chk
#P MP2/6-311++G** DENSITY=MP2
 
X=CN
 
0 1
6 1.209094 -1.480487 0.000000
6 1.215157 -0.090122 0.000000
6 0.000000 0.610344 0.000000
6 -1.214876 -0.090665 0.000000
6 -1.208191 -1.481008 0.000000
6 0.000613 -2.176651 0.000000
6 -0.000450 2.042515 0.000000
1 -2.148770 0.457518 0.000000
1 -2.147125 -2.021842 0.000000
1 0.000834 -3.260477 0.000000
1 2.148279 -2.020884 0.000000
1 2.148829 0.458443 0.000000
7 -0.001446 3.197669 0.000000




