%chk=chair-15.chk
#P MP2/6-311++G** nosymm Density=MP2 

Chair-15

0 1
 C                    1.38350298    0.00000000   0.06068960
 C                    0.69634431    1.20998809  -0.06068960
 C                   -0.69634431    1.20998809   0.06068960
 C                   -1.38350298   -0.00000000  -0.06068960
 C                   -0.69634431   -1.20998809   0.06068960
 C                    0.69634431   -1.20998809  -0.06068960
 H                    2.46888088   -0.00000000   0.04994299
 H                    1.24391295    2.14634217  -0.04800320
 H                   -1.24391295    2.14634217   0.04800320
 H                   -2.46888088   -0.00000000  -0.04994299
 H                   -1.24391295   -2.14634217   0.04800320
 H                    1.24391295   -2.14634217  -0.04800320

