%Mem=3800MB
%NProcShared=6
%chk=/home/itamar/Aromaticity-test-set/T4-Chair-Like/15/chair-15.chk
#P MP2/6-311++G** DENSITY=MP2
 
Chair-15
 
0 1
6 0.000000 1.383524 -0.060206
6 1.209988 0.696323 0.060933
6 1.209988 -0.696323 -0.060933
6 0.000000 -1.383524 0.060206
6 -1.209988 -0.696322 -0.060933
6 -1.209988 0.696322 0.060933
1 0.000000 2.468898 -0.049080
1 2.146342 1.243896 0.048438
1 2.146342 -1.243896 -0.048438
1 0.000000 -2.468898 0.049080
1 -2.146342 -1.243896 -0.048438
1 -2.146342 1.243896 0.048438



