%Mem=3800MB
%NProcShared=6
%chk=/home/itamar/Aromaticity-test-set/T12-old-T14-Fulvenes/Hepta-BH2m/hepta-bh2m.chk
#P MP2/6-311++G** DENSITY=MP2
 
Hepta-O
 
-1 1
6 0.674071 -1.873641 0.000000
6 1.580627 -0.718739 0.000000
6 -0.674082 -1.873542 0.000000
6 -1.580593 -0.718697 0.000000
6 -1.267649 0.605334 0.000000
6 0.000000 1.331685 0.000000
6 1.267734 0.605251 0.000000
1 -2.130883 1.271808 0.000000
1 2.130962 1.271749 0.000000
1 2.639591 -0.970998 0.000000
1 1.164683 -2.846540 0.000000
1 -1.164756 -2.846430 0.000000
1 -2.639558 -0.970915 0.000000
5 -0.000009 2.811642 0.000000
1 -1.034012 3.443412 0.000000
1 1.033375 3.443796 0.00000



