%Mem=3800MB
%NProcShared=6
%chk=/home/itamar/Aromaticity-test-set/T5-Pyramid/5/pyramid-5.chk
#P MP2/6-311++G** DENSITY=MP2
 
Pyramid-5
 
0 1
6 -0.000045 1.394809 -0.013488
6 -1.207972 0.697350 -0.013489
6 -1.207972 -0.697486 -0.013531
6 0.000045 -1.394809 -0.013488
6 1.207972 -0.697350 -0.013489
6 1.207972 0.697486 -0.013531
1 -0.000112 2.475173 0.081031
1 -2.143603 1.237517 0.081030
1 -2.143571 -1.237703 0.080989
1 0.000112 -2.475173 0.081031
1 2.143603 -1.237517 0.081030
1 2.143571 1.237703 0.080989


