%Mem=3800MB
%NProcShared=6
%chk=/home/itamar/Aromaticity-test-set/T6-Subst-Complex-in-Benzene/OCH3/och3.chk
#P MP2/6-311++G** DENSITY=MP2
 
X=OCH3
 
0 1
6 -0.891747 -2.126216 0.000000
6 0.468599 -1.840275 0.000000
6 0.925254 -0.519450 0.000000
6 0.000000 0.527751 0.000000
6 -1.371931 0.245310 0.000000
6 -1.809324 -1.071731 0.000000
8 0.332320 1.852754 0.000000
6 1.707650 2.208356 0.000000
1 -2.071031 1.072903 0.000000
1 -2.873785 -1.278387 0.000000
1 -1.236608 -3.153266 0.000000
1 1.193111 -2.647148 0.000000
1 1.989151 -0.324512 0.000000
1 1.733203 3.296808 0.000000
1 2.218193 1.834549 0.894252
1 2.218193 1.834549 -0.894252




