%Mem=3800MB
%NProcShared=6
%chk=/home/itamar/Aromaticity-test-set/T6-Subst-Complex-in-Benzene/NH2/nh2.chk
#P MP2/6-311++G** DENSITY=MP2
 
X=NH2
 
0 1
6 1.170643 1.200836 0.003313
6 -0.220576 1.206375 -0.004820
6 -0.936894 0.000140 -0.007529
6 -0.220602 -1.206208 -0.004761
6 1.170605 -1.200952 0.003338
6 1.879603 -0.000076 0.007653
7 -2.333441 -0.000002 -0.072364
1 -0.760023 -2.148285 -0.013819
1 1.703683 -2.145555 0.006840
1 2.962912 0.000039 0.014557
1 1.703933 2.145321 0.006657
1 -0.759799 2.148559 -0.013725
1 -2.786400 -0.838067 0.260834
1 -2.786907 0.837318 0.262043



