%Mem=3800MB
%NProcShared=6
%chk=/home/itamar/Aromaticity-test-set/T6-Subst-Complex-in-Benzene/CHO/cho.chk
#P MP2/6-311++G** DENSITY=MP2
 
X=CHO
 
0 1
6 1.614935 -1.230301 0.000000
6 1.327875 0.132276 0.000000
6 0.000000 0.572246 0.000000
6 -1.044507 -0.362437 0.000000
6 -0.757154 -1.720847 0.000000
6 0.571914 -2.155168 0.000000
6 -0.284706 2.025369 0.000000
1 -2.066389 -0.001933 0.000000
1 -1.562659 -2.446195 0.000000
1 0.792117 -3.216826 0.000000
1 2.643889 -1.570591 0.000000
1 2.132755 0.860849 0.000000
8 -1.391038 2.516976 0.000000
1 0.618450 2.672059 0.000000


