%Mem=3800MB
%NProcShared=6
%chk=/home/itamar/Aromaticity-test-set/T3-Boat-Like/10/boat-10.chk
#P MP2/6-311++G** DENSITY=MP2
 
Boat-10
 
0 1
6 -0.000961 1.394131 0.040725
6 1.207761 0.696226 0.040725
6 1.201464 -0.693680 -0.080840
6 0.000961 -1.394131 0.040725
6 -1.207761 -0.696226 0.040725
6 -1.201464 0.693680 -0.080840
1 -0.003820 2.478073 0.068947
1 2.147938 1.235677 0.069195
1 2.139474 -1.235213 -0.138753
1 0.003820 -2.478073 0.068947
1 -2.147938 -1.235677 0.069195
1 -2.139474 1.235213 -0.138753





