%chk=CH-.chk
#P MP2/6-311++G** nosymm Density=MP2 

CH-

-1 1
 C                    1.14484909    0.37200106    0.00000000
 H                    2.17733117    0.70744508    0.00000000
 C                    0.70754306   -0.97390904    0.00000000
 H                    1.34571010   -1.85213411    0.00000000
 C                   -1.14484909    0.37200106   -0.00000000
 H                   -2.17733117    0.70744508   -0.00000000
 C                   -0.70754306   -0.97390904   -0.00000000
 H                   -1.34571010   -1.85213411   -0.00000000
 C                   -0.00000000    1.20381212    0.00000000
 H                    0.00000000    2.28940120    0.00000000

